/*--------------------------------*- C++ -*----------------------------------*\
| =========                 |                                                 |
| \\      /  F ield         | OpenFOAM: The Open Source CFD Toolbox           |
|  \\    /   O peration     | Version:  plus                                  |
|   \\  /    A nd           | Web:      www.OpenFOAM.com                      |
|    \\/     M anipulation  |                                                 |
\*---------------------------------------------------------------------------*/
FoamFile
{
    version     2.0;
    format      ascii;
    class       dictionary;
    object      blockMeshDict;
}

// * * * * * * * * * * * * * * * * * * * * * * * * * * * * * * * * * * * * * //

x0  -2; x1 -1; x2 1; x3 2;
y0  -2; y1 -1.05; y2 -0.95; y3 0;
z0   0; z1 0.1;
nx  60;
ny  10;
nz   1;

scale   1;

vertices
(
    ($x0 $y3 $z0)//0
    ($x1 $y3 $z0)//1
    ($x2 $y3 $z0)//2
    ($x3 $y3 $z0)//3

    ($x0 $y2 $z0)//4
    ($x1 $y2 $z0)//5
    ($x2 $y2 $z0)//6
    ($x3 $y2 $z0)//7

    ($x0 $y1 $z0)//8
    ($x1 $y1 $z0)//9
    ($x2 $y1 $z0)//10
    ($x3 $y1 $z0)//11

    ($x0 $y0 $z0)//12
    ($x1 $y0 $z0)//13
    ($x2 $y0 $z0)//14
    ($x3 $y0 $z0)//15

    ($x0 $y3 $z1)//16
    ($x1 $y3 $z1)//17
    ($x2 $y3 $z1)//18
    ($x3 $y3 $z1)//19

    ($x0 $y2 $z1)//20
    ($x1 $y2 $z1)//21
    ($x2 $y2 $z1)//22
    ($x3 $y2 $z1)//23

    ($x0 $y1 $z1)//24
    ($x1 $y1 $z1)//25
    ($x2 $y1 $z1)//26
    ($x3 $y1 $z1)//27

    ($x0 $y0 $z1)//28
    ($x1 $y0 $z1)//29
    ($x2 $y0 $z1)//30
    ($x3 $y0 $z1)//31

);

blocks
(
    hex (16 17 21 20 0 1 5 4) ($nx $nx 1) simpleGrading (1 1 1)
    hex (17 18 22 21 1 2 6 5) ($nx $nx 1) simpleGrading (1 1 1)
    hex (18 19 23 22 2 3 7 6) ($nx $nx 1) simpleGrading (1 1 1)
    hex (22 23 27 26 6 7 11 10) ($nx $ny 1) simpleGrading (1 1 1)
    hex (26 27 31 30 10 11 15 14) ($nx $nx 1) simpleGrading (1 1 1)
    hex (25 26 30 29 9 10 14 13) ($nx $nx 1) simpleGrading (1 1 1)
    hex (24 25 29 28 8 9 13 12) ($nx $nx 1) simpleGrading (1 1 1)
    hex (20 21 25 24 4 5 9 8) ($nx $ny 1) simpleGrading (1 1 1)
);

edges
(
);

boundary
(
    walls
    {
        type wall;
        faces
        (
            (5 6 22 21)
            (22 26 10 6)
            (25 26 9 10)
            (21 25 9 5)
        );
    }
    overSetPatch
    {
        type overset;
        faces
        (
          (0 1 17 16)
          (1 2 18 17)
          (2 3 19 18)
          (3 7 23 19)
          (7 11 27 23)
          (11 15 31 27)
          (14 15 31 30)
          (13 14 30 29)
          (12 13 29 28)
          (8 12 28 24)
          (4 8 20 24)
          (0 4 20 16)
        );
    }
    frontAndBack
    {
        type empty;
        faces
        (
            (0 1 5 4)
            (16 17 21 20)
            (1 2 6 5)
            (17 18 22 21)
            (2 3 6 7)
            (18 19 23 22)
            (6 7 11 10)
            (22 23 27 26)
            (10 11 15 14)
            (26 27 31 30)
            (9 10 14 13)
            (25 26 30 29)
            (8 9 12 13)
            (24 25 29 28)
            (4 5 8 9)
            (20 21 25 24)
        );
    }
);


// ************************************************************************* //
