/*--------------------------------*- C++ -*----------------------------------*\
| =========                 |                                                 |
| \\      /  F ield         | OpenFOAM: The Open Source CFD Toolbox           |
|  \\    /   O peration     | Version:  plus                                  |
|   \\  /    A nd           | Web:      www.OpenFOAM.com                      |
|    \\/     M anipulation  |                                                 |
\*---------------------------------------------------------------------------*/
FoamFile
{
    version     2.0;
    format      ascii;
    class       volVectorField;
    object      U;
}
// * * * * * * * * * * * * * * * * * * * * * * * * * * * * * * * * * * * * * //

dimensions      [0 1 -1 0 0 0 0];

internalField   uniform (1 0 0);
    
boundaryField
{
    #includeEtc "caseDicts/setConstraintTypes"

    overset
    {
        type            overset;
    }

    walls
    {
        type            movingWallVelocity;
        value           uniform (0 0 0);
    }

    inlet
    {
        type            fixedValue;
        value uniform           (1 0 0);
    }

    outlet
    {
        type            zeroGradient;
    }

    topAndBottom
    {
        type slip;
    }
}

// ************************************************************************* //
