/*--------------------------------*- C++ -*----------------------------------*\
| =========                 |                                                 |
| \\      /  F ield         | OpenFOAM: The Open Source CFD Toolbox           |
|  \\    /   O peration     | Version:  plus                                  |
|   \\  /    A nd           | Web:      www.OpenFOAM.com                      |
|    \\/     M anipulation  |                                                 |
\*---------------------------------------------------------------------------*/
FoamFile
{
    version     2.0;
    format      ascii;
    class       dictionary;
    object      blockMeshDict;
}

// * * * * * * * * * * * * * * * * * * * * * * * * * * * * * * * * * * * * * //

x0  -30; x1 30;
y0  -20; y1 20;
z0    0; z1 0.1;
nx  60;
ny  40;
nz   1;

scale   1;

vertices
(
    ($x0 $y0 $z0)
    ($x1 $y0 $z0)
    ($x1 $y1 $z0)
    ($x0 $y1 $z0)
    ($x0 $y0 $z1)
    ($x1 $y0 $z1)
    ($x1 $y1 $z1)
    ($x0 $y1 $z1)
);

blocks
(
    hex (0 1 2 3 4 5 6 7) ($nx $ny $nz) simpleGrading (1 1 1)
);

edges
(
);

boundary
(
    inlet
    {
        type patch;
        faces
        (
            (0 4 7 3)
        );
    }

    outlet
    {
        type patch;
        faces
        (
            (1 5 6 2)
        );
    }
    topAndBottom
    {
        type patch;
        faces
        (
            (0 1 5 4)
            (7 6 2 3)
        );
    }
    frontAndBack
    {
        type empty;
        faces
        (
            (0 1 2 3)
            (4 5 6 7)
        );
    }
);


// ************************************************************************* //
