/*--------------------------------*- C++ -*----------------------------------*\
| =========                 |                                                 |
| \\      /  F ield         | OpenFOAM: The Open Source CFD Toolbox           |
|  \\    /   O peration     | Version:  2112                                  |
|   \\  /    A nd           | Website:  www.openfoam.com                      |
|    \\/     M anipulation  |                                                 |
\*---------------------------------------------------------------------------*/
FoamFile
{
    version     2.0;
    format      binary;
    arch        "LSB;label=32;scalar=64";
    class       polyBoundaryMesh;
    location    "constant/polyMesh";
    object      boundary;
}
// * * * * * * * * * * * * * * * * * * * * * * * * * * * * * * * * * * * * * //

3
(
    overSetPatch
    {
        type            overset;
        nFaces          80;
        startFace       7920;
        faces           ( ( 0 1 8 9 ) ( 1 2 9 10 ) ( 2 3 10 11 ) ( 3 0 11 8 ) );
    }
    walls
    {
        type            wall;
        inGroups        1(wall);
        nFaces          80;
        startFace       8000;
    }
    frontAndBack
    {
        type            empty;
        inGroups        1(empty);
        nFaces          8000;
        startFace       8080;
    }
)

// ************************************************************************* //
