/*--------------------------------*- C++ -*----------------------------------*\
| =========                 |                                                 |
| \\      /  F ield         | OpenFOAM: The Open Source CFD Toolbox           |
|  \\    /   O peration     | Version:  plus                                  |
|   \\  /    A nd           | Web:      www.OpenFOAM.com                      |
|    \\/     M anipulation  |                                                 |
\*---------------------------------------------------------------------------*/
FoamFile
{
    version     2.0;
    format      ascii;
    class       dictionary;
    object      setFieldsDict;
}
// * * * * * * * * * * * * * * * * * * * * * * * * * * * * * * * * * * * * * //

defaultFieldValues
(
    volScalarFieldValue zoneID 123
);

regions
(
    // Set cell values
    // (does zerogradient on boundaries)
    zoneToCell
    {
        zone backgroundZone;

        fieldValues
        (
            volScalarFieldValue zoneID 0
        );
    }
    zoneToCell
    {
        zone movingZone;

        fieldValues
        (
            volScalarFieldValue zoneID 1
        );
    }

);

// ************************************************************************* //
