/*--------------------------------*- C++ -*----------------------------------*\
| =========                 |                                                 |
| \\      /  F ield         | OpenFOAM: The Open Source CFD Toolbox           |
|  \\    /   O peration     | Version:  2112                                  |
|   \\  /    A nd           | Website:  www.openfoam.com                      |
|    \\/     M anipulation  |                                                 |
\*---------------------------------------------------------------------------*/
// * * * * * * * * * * * * * * * * * * * * * * * * * * * * * * * * * * * * * //
FoamFile
{
    version         2;
    format          ascii;
    class           dictionary;
    object          fvSolution;
}

solvers
{
    cellDisplacement
    {
        solver          PCG;
        preconditioner  DIC;
        tolerance       1e-06;
        relTol          0;
        maxIter         100;
    }
    p
    {
        solver          PBiCGStab;
        preconditioner  DILU;
        tolerance       1e-06;
        relTol          0.1;
    }
    pFinal
    {
        $p;
    }
    pcorr
    {
        solver          PCG;
        preconditioner  DIC;
        tolerance       1e-06;
        relTol          0.01;
    }
    pcorrFinal
    {
        $pcorr;
        relTol          0;
    }

    "(U|k|epsilon)"
    {
        solver          smoothSolver;
        smoother        symGaussSeidel;
        tolerance       1e-06;
        relTol          0.1;
    }
    "(U|k|epsilon)Final"
    {
        $U;
        tolerance       1e-6;
        relTol          0;
    }

}

PIMPLE
{
  momentumPredictor   no;
  nOuterCorrectors    1;
  nCorrectors         2;
  nNonOrthogonalCorrectors 0;

  pRefPoint           (0.0001 0.0001 0.001);
  pRefValue           0.0;

}

relaxationFactors
{
    fields
    {
        p               1;
    }
    equations
    {
        ".*"            1;
        U               1;
    }
}


// ************************************************************************* //
